inputs/GSO_Base_Network/Rural/Loads.dss
New Load.rclvl5918 conn=wye bus1=rclv5918.1.2 kV=0.240178 Vminpu=0.95 Vmaxpu=1.05 model=1 kW=0.760008 kvar=0.370023806178 Phases=2

New Load.rclvl5919 conn=wye bus1=rclv5919.1.2 kV=0.240178 Vminpu=0.95 Vmaxpu=1.05 model=1 kW=1.66002 kvar=0.800219242954 Phases=2

New Load.rclvl5914 conn=wye bus1=rclv5914.1.2 kV=0.240178 Vminpu=0.95 Vmaxpu=1.05 model=1 kW=2.74003 kvar=1.33015976772 Phases=2

New Load.rclvl5915 conn=wye bus1=rclv5915.1.2 kV=0.240178 Vminpu=0.95 Vmaxpu=1.05 model=1 kW=0.760008 kvar=0.370023806178 Phases=2

New Load.rclvl5916 conn=wye bus1=rclv5916.1.2 kV=0.240178 Vminpu=0.95 Vmaxpu=1.05 model=1 kW=2.74003 kvar=1.33015976772 Phases=2

New Load.rclvl5917 conn=wye bus1=rclv5917.1.2 kV=0.240178 Vminpu=0.95 Vmaxpu=1.05 model=1 kW=0.760008 kvar=0.370023806178 Phases=2

New Load.rclvl5910 conn=wye bus1=rclv5910.1.2 kV=0.240178 Vminpu=0.95 Vmaxpu=1.05 model=1 kW=0.760008 kvar=0.370023806178 Phases=2

New Load.rclvl5911 conn=wye bus1=rclv5911.1.2 kV=0.240178 Vminpu=0.95 Vmaxpu=1.05 model=1 kW=0.760008 kvar=0.370023806178 Phases=2

New Load.rclvl5912 conn=wye bus1=rclv5912.1.2 kV=0.240178 Vminpu=0.95 Vmaxpu=1.05 model=1 kW=1.66002 kvar=0.800219242954 Phases=2

New Load.rclvl5913 conn=wye bus1=rclv5913.1.2 kV=0.240178 Vminpu=0.95 Vmaxpu=1.05 model=1 kW=2.74003 kvar=1.33015976772 Phases=2

New Load.rclvl2546 conn=wye bus1=rclv2546.1.2 kV=0.240178 Vminpu=0.95 Vmaxpu=1.05 model=1 kW=0.760008 kvar=0.370023806178 Phases=2

New Load.rclvl2547 conn=wye bus1=rclv2547.1.2 kV=0.240178 Vminpu=0.95 Vmaxpu=1.05 model=1 kW=1.66002 kvar=0.800219242954 Phases=2

New Load.rclvl201 conn=wye bus1=rclv201.1.2 kV=0.240178 Vminpu=0.95 Vmaxpu=1.05 model=1 kW=0.760008 kvar=0.370023806178 Phases=2

New Load.rclvl2896 conn=wye bus1=rclv2897.1.2 kV=0.240178 Vminpu=0.95 Vmaxpu=1.05 model=1 kW=0.760008 kvar=0.370023806178 Phases=2

New Load.rclvl2549 conn=wye bus1=rclv2549.1.2 kV=0.240178 Vminpu=0.95 Vmaxpu=1.05 model=1 kW=1.66002 kvar=0.800219242954 Phases=2

New Load.rclvl4355 conn=wye bus1=rclv4355.1.2 kV=0.240178 Vminpu=0.95 Vmaxpu=1.05 model=1 kW=0.760008 kvar=0.370023806178 Phases=2

New Load.rclvl1444 conn=wye bus1=rclv1444.1.2 kV=0.240178 Vminpu=0.95 Vmaxpu=1.05 model=1 kW=0.760008 kvar=0.370023806178 Phases=2

New Load.rclvl4354 conn=wye bus1=rclv4354.1.2 kV=0.240178 Vminpu=0.95 Vmaxpu=1.05 model=1 kW=2.74003 kvar=1.33015976772 Phases=2

New Load.rclvl1277 conn=wye bus1=rclv1277.1.2 kV=0.240178 Vminpu=0.95 Vmaxpu=1.05 model=1 kW=1.66002 kvar=0.800219242954 Phases=2

New Load.rclvl1276 conn=wye bus1=rclv1276.1.2 kV=0.240178 Vminpu=0.95 Vmaxpu=1.05 model=1 kW=1.66002 kvar=0.800219242954 Phases=2

New Load.rclvl1271 conn=wye bus1=rclv1271.1.2 kV=0.240178 Vminpu=0.95 Vmaxpu=1.05 model=1 kW=1.66002 kvar=0.800219242954 Phases=2

New Load.rclvl1270 conn=wye bus1=rclv1270.1.2 kV=0.240178 Vminpu=0.95 Vmaxpu=1.05 model=1 kW=0.760008 kvar=0.370023806178 Phases=2

New Load.rclvl1445 conn=wye bus1=rclv1445.1.2 kV=0.240178 Vminpu=0.95 Vmaxpu=1.05 model=1 kW=1.66002 kvar=0.800219242954 Phases=2

New Load.rclvl1273 conn=wye bus1=rclv1273.1.2 kV=0.240178 Vminpu=0.95 Vmaxpu=1.05 model=1 kW=1.66002 kvar=0.800219242954 Phases=2

New Load.rclvl1272 conn=wye bus1=rclv1272.1.2 kV=0.240178 Vminpu=0.95 Vmaxpu=1.05 model=1 kW=0.760008 kvar=0.370023806178 Phases=2

New Load.rclvl1516 conn=wye bus1=rclv1516.1.2 kV=0.240178 Vminpu=0.95 Vmaxpu=1.05 model=1 kW=1.66002 kvar=0.800219242954 Phases=2

New Load.rclvl1279 conn=wye bus1=rclv1279.1.2 kV=0.240178 Vminpu=0.95 Vmaxpu=1.05 model=1 kW=1.66002 kvar=0.800219242954 Phases=2

New Load.rclvl1278 conn=wye bus1=rclv1278.1.2 kV=0.240178 Vminpu=0.95 Vmaxpu=1.05 model=1 kW=1.66002 kvar=0.800219242954 Phases=2

New Load.rclvl1110 conn=wye bus1=rclv1110.1.2 kV=0.240178 Vminpu=0.95 Vmaxpu=1.05 model=1 kW=0.760008 kvar=0.370023806178 Phases=2

New Load.rclvl4431 conn=wye bus1=rclv4431.1.2 kV=0.240178 Vminpu=0.95 Vmaxpu=1.05 model=1 kW=16.1102 kvar=7.79796251853 Phases=2

New Load.rclvl1112 conn=wye bus1=rclv1112.1.2 kV=0.240178 Vminpu=0.95 Vmaxpu=1.05 model=1 kW=1.66002 kvar=0.800219242954 Phases=2

New Load.rclvl1113 conn=wye bus1=rclv1113.1.2 kV=0.240178 Vminpu=0.95 Vmaxpu=1.05 model=1 kW=0.760008 kvar=0.370023806178 Phases=2

New Load.rclvl1114 conn=wye bus1=rclv1114.1.2 kV=0.240178 Vminpu=0.95 Vmaxpu=1.05 model=1 kW=1.66002 kvar=0.800219242954 Phases=2

New Load.rclvl4435 conn=wye bus1=rclv4435.1.2 kV=0.240178 Vminpu=0.95 Vmaxpu=1.05 model=1 kW=0.760008 kvar=0.370023806178 Phases=2

New Load.rclvl4436 conn=wye bus1=rclv4435.1.2 kV=0.240178 Vminpu=0.95 Vmaxpu=1.05 model=1 kW=0.760008 kvar=0.370023806178 Phases=2

New Load.rclvl1117 conn=wye bus1=rclv1117.1.2 kV=0.240178 Vminpu=0.95 Vmaxpu=1.05 model=1 kW=38.2504 kvar=18.5255142389 Phases=2

New Load.rclvl1118 conn=wye bus1=rclv1118.1.2 kV=0.240178 Vminpu=0.95 Vmaxpu=1.05 model=1 kW=1.66002 kvar=0.800219242954 Phases=2

New Load.rclvl1119 conn=wye bus1=rclv1119.1.2 kV=0.240178 Vminpu=0.95 Vmaxpu=1.05 model=1 kW=0.760008 kvar=0.370023806178 Phases=2

New Load.rclvl1443 conn=wye bus1=rclv1443.1.2 kV=0.240178 Vminpu=0.95 Vmaxpu=1.05 model=1 kW=0.760008 kvar=0.370023806178 Phases=2

New Load.rclvl2878 conn=wye bus1=rclv2878.1.2 kV=0.240178 Vminpu=0.95 Vmaxpu=1.05 model=1 kW=0.760008 kvar=0.370023806178 Phases=2

New Load.rclvl2879 conn=wye bus1=rclv2879.1.2 kV=0.240178 Vminpu=0.95 Vmaxpu=1.05 model=1 kW=1.66002 kvar=0.800219242954 Phases=2

New Load.rclvl2872 conn=wye bus1=rclv2872.1.2 kV=0.240178 Vminpu=0.95 Vmaxpu=1.05 model=1 kW=0.760008 kvar=0.370023806178 Phases=2

New Load.rclvl2873 conn=wye bus1=rclv2873.1.2 kV=0.240178 Vminpu=0.95 Vmaxpu=1.05 model=1 kW=1.66002 kvar=0.800219242954 Phases=2

New Load.rclvl2870 conn=wye bus1=rclv2870.1.2 kV=0.240178 Vminpu=0.95 Vmaxpu=1.05 model=1 kW=1.66002 kvar=0.800219242954 Phases=2

New Load.rclvl2871 conn=wye bus1=rclv2871.1.2 kV=0.240178 Vminpu=0.95 Vmaxpu=1.05 model=1 kW=38.2504 kvar=18.5255142389 Phases=2

New Load.rclvl2876 conn=wye bus1=rclv2876.1.2 kV=0.240178 Vminpu=0.95 Vmaxpu=1.05 model=1 kW=2.74003 kvar=1.33015976772 Phases=2

New Load.rclvl2877 conn=wye bus1=rclv2877.1.2 kV=0.240178 Vminpu=0.95 Vmaxpu=1.05 model=1 kW=1.66002 kvar=0.800219242954 Phases=2

New Load.rclvl2874 conn=wye bus1=rclv2874.1.2 kV=0.240178 Vminpu=0.95 Vmaxpu=1.05 model=1 kW=1.66002 kvar=0.800219242954 Phases=2

New Load.rclvl2875 conn=wye bus1=rclv2875.1.2 kV=0.240178 Vminpu=0.95 Vmaxpu=1.05 model=1 kW=2.74003 kvar=1.33015976772 Phases=2

New Load.rclvl3440 conn=wye bus1=rclv3440.1.2 kV=0.240178 Vminpu=0.95 Vmaxpu=1.05 model=1 kW=0.760008 kvar=0.370023806178 Phases=2

New Load.rclvl1378 conn=wye bus1=rclv1378.1.2 kV=0.240178 Vminpu=0.95 Vmaxpu=1.05 model=1 kW=0.760008 kvar=0.370023806178 Phases=2

New Load.rclvl1379 conn=wye bus1=rclv1379.1.2 kV=0.240178 Vminpu=0.95 Vmaxpu=1.05 model=1 kW=2.74003 kvar=1.33015976772 Phases=2

New Load.rclvl3441 conn=wye bus1=rclv3441.1.2 kV=0.240178 Vminpu=0.95 Vmaxpu=1.05 model=1 kW=1.66002 kvar=0.800219242954 Phases=2

New Load.rclvl1374 conn=wye bus1=rclv1374.1.2 kV=0.240178 Vminpu=0.95 Vmaxpu=1.05 model=1 kW=1.66002 kvar=0.800219242954 Phases=2

New Load.rclvl1375 conn=wye bus1=rclv1375.1.2 kV=0.240178 Vminpu=0.95 Vmaxpu=1.05 model=1 kW=38.2504 kvar=18.5255142389 Phases=2

New Load.rclvl1376 conn=wye bus1=rclv1376.1.2 kV=0.240178 Vminpu=0.95 Vmaxpu=1.05 model=1 kW=0.760008 kvar=0.370023806178 Phases=2

New Load.rclvl1377 conn=wye bus1=rclv1377.1.2 kV=0.240178 Vminpu=0.95 Vmaxpu=1.05 model=1 kW=1.66002 kvar=0.800219242954 Phases=2

New Load.rclvl1370 conn=wye bus1=rclv1370.1.2 kV=0.240178 Vminpu=0.95 Vmaxpu=1.05 model=1 kW=0.760008 kvar=0.370023806178 Phases=2

New Load.rclvl1371 conn=wye bus1=rclv1371.1.2 kV=0.240178 Vminpu=0.95 Vmaxpu=1.05 model=1 kW=0.760008 kvar=0.370023806178 Phases=2

New Load.rclvl1372 conn=wye bus1=rclv1372.1.2 kV=0.240178 Vminpu=0.95 Vmaxpu=1.05 model=1 kW=1.66002 kvar=0.800219242954 Phases=2

New Load.rclvl1373 conn=wye bus1=rclv1373.1.2 kV=0.240178 Vminpu=0.95 Vmaxpu=1.05 model=1 kW=1.66002 kvar=0.800219242954 Phases=2

New Load.rclvl1095 conn=wye bus1=rclv1095.1.2 kV=0.240178 Vminpu=0.95 Vmaxpu=1.05 model=1 kW=2.74003 kvar=1.33015976772 Phases=2

New Load.rclvl3443 conn=wye bus1=rclv3443.1.2 kV=0.240178 Vminpu=0.95 Vmaxpu=1.05 model=1 kW=1.66002 kvar=0.800219242954 Phases=2

New Load.rclvl4574 conn=wye bus1=rclv4574.1.2 kV=0.240178 Vminpu=0.95 Vmaxpu=1.05 model=1 kW=0.760008 kvar=0.370023806178 Phases=2

New Load.rclvl3444 conn=wye bus1=rclv3446.1.2 kV=0.240178 Vminpu=0.95 Vmaxpu=1.05 model=1 kW=2.74003 kvar=1.33015976772 Phases=2

New Load.rclvl4577 conn=wye bus1=rclv4577.1.2 kV=0.240178 Vminpu=0.95 Vmaxpu=1.05 model=1 kW=1.66002 kvar=0.800219242954 Phases=2

New Load.rclvl3445 conn=wye bus1=rclv3446.1.2 kV=0.240178 Vminpu=0.95 Vmaxpu=1.05 model=1 kW=1.66002 kvar=0.800219242954 Phases=2

New Load.rclvl1096 conn=wye bus1=rclv1096.1.2 kV=0.240178 Vminpu=0.95 Vmaxpu=1.05 model=1 kW=2.74003 kvar=1.33015976772 Phases=2

New Load.rclvl3446 conn=wye bus1=rclv3446.1.2 kV=0.240178 Vminpu=0.95 Vmaxpu=1.05 model=1 kW=2.74003 kvar=1.33015976772 Phases=2

New Load.rclvl1091 conn=wye bus1=rclv1091.1.2 kV=0.240178 Vminpu=0.95 Vmaxpu=1.05 model=1 kW=2.74003 kvar=1.33015976772 Phases=2

New Load.rclvl3447 conn=wye bus1=rclv3446.1.2 kV=0.240178 Vminpu=0.95 Vmaxpu=1.05 model=1 kW=1.66002 kvar=0.800219242954 Phases=2

New Load.rclvl1090 conn=wye bus1=rclv1090.1.2 kV=0.240178 Vminpu=0.95 Vmaxpu=1.05 model=1 kW=0.760008 kvar=0.370023806178 Phases=2

New Load.rclvl1093 conn=wye bus1=rclv1093.1.2 kV=0.240178 Vminpu=0.95 Vmaxpu=1.05 model=1 kW=1.66002 kvar=0.800219242954 Phases=2

New Load.rclvl4572 conn=wye bus1=rclv4572.1.2 kV=0.240178 Vminpu=0.95 Vmaxpu=1.05 model=1 kW=1.66002 kvar=0.800219242954 Phases=2

New Load.rclvl934 conn=wye bus1=rclv934.1.2 kV=0.240178 Vminpu=0.95 Vmaxpu=1.05 model=1 kW=1.66002 kvar=0.800219242954 Phases=2

New Load.rclvl935 conn=wye bus1=rclv935.1.2 kV=0.240178 Vminpu=0.95 Vmaxpu=1.05 model=1 kW=1.66002 kvar=0.800219242954 Phases=2

New Load.rclvl936 conn=wye bus1=rclv936.1.2 kV=0.240178 Vminpu=0.95 Vmaxpu=1.05 model=1 kW=0.760008 kvar=0.370023806178 Phases=2

New Load.rclvl937 conn=wye bus1=rclv937.1.2 kV=0.240178 Vminpu=0.95 Vmaxpu=1.05 model=1 kW=1.66002 kvar=0.800219242954 Phases=2

New Load.rclvl930 conn=wye bus1=rclv930.1.2 kV=0.240178 Vminpu=0.95 Vmaxpu=1.05 model=1 kW=1.66002 kvar=0.800219242954 Phases=2

New Load.rclvl931 conn=wye bus1=rclv931.1.2 kV=0.240178 Vminpu=0.95 Vmaxpu=1.05 model=1 kW=1.66002 kvar=0.800219242954 Phases=2

New Load.rclvl932 conn=wye bus1=rclv932.1.2 kV=0.240178 Vminpu=0.95 Vmaxpu=1.05 model=1 kW=1.66002 kvar=0.800219242954 Phases=2

New Load.rclvl933 conn=wye bus1=rclv933.1.2 kV=0.240178 Vminpu=0.95 Vmaxpu=1.05 model=1 kW=38.2504 kvar=18.5255142389 Phases=2

New Load.rclvl938 conn=wye bus1=rclv938.1.2 kV=0.240178 Vminpu=0.95 Vmaxpu=1.05 model=1 kW=2.74003 kvar=1.33015976772 Phases=2

New Load.rclvl939 conn=wye bus1=rclv939.1.2 kV=0.240178 Vminpu=0.95 Vmaxpu=1.05 model=1 kW=1.66002 kvar=0.800219242954 Phases=2

New Load.rclvl2298 conn=wye bus1=rclv2298.1.2 kV=0.240178 Vminpu=0.95 Vmaxpu=1.05 model=1 kW=2.74003 kvar=1.33015976772 Phases=2

New Load.rclvl2299 conn=wye bus1=rclv2299.1.2 kV=0.240178 Vminpu=0.95 Vmaxpu=1.05 model=1 kW=2.74003 kvar=1.33015976772 Phases=2

New Load.rclvl2296 conn=wye bus1=rclv2296.1.2 kV=0.240178 Vminpu=0.95 Vmaxpu=1.05 model=1 kW=38.2504 kvar=18.5255142389 Phases=2

New Load.rclvl2297 conn=wye bus1=rclv2297.1.2 kV=0.240178 Vminpu=0.95 Vmaxpu=1.05 model=1 kW=2.74003 kvar=1.33015976772 Phases=2

New Load.rclvl2294 conn=wye bus1=rclv2294.1.2 kV=0.240178 Vminpu=0.95 Vmaxpu=1.05 model=1 kW=38.2504 kvar=18.5255142389 Phases=2

New Load.rclvl2295 conn=wye bus1=rclv2295.1.2 kV=0.240178 Vminpu=0.95 Vmaxpu=1.05 model=1 kW=0.760008 kvar=0.370023806178 Phases=2

New Load.rclvl2292 conn=wye bus1=rclv2292.1.2 kV=0.240178 Vminpu=0.95 Vmaxpu=1.05 model=1 kW=1.66002 kvar=0.800219242954 Phases=2

New Load.rclvl2293 conn=wye bus1=rclv2293.1.2 kV=0.240178 Vminpu=0.95 Vmaxpu=1.05 model=1 kW=0.760008 kvar=0.370023806178 Phases=2

New Load.rclvl2290 conn=wye bus1=rclv2290.1.2 kV=0.240178 Vminpu=0.95 Vmaxpu=1.05 model=1 kW=0.760008 kvar=0.370023806178 Phases=2

New Load.rclvl2291 conn=wye bus1=rclv2291.1.2 kV=0.240178 Vminpu=0.95 Vmaxpu=1.05 model=1 kW=1.66002 kvar=0.800219242954 Phases=2

New Load.rclvl1808 conn=wye bus1=rclv1808.1.2 kV=0.240178 Vminpu=0.95 Vmaxpu=1.05 model=1 kW=1.66002 kvar=0.800219242954 Phases=2

New Load.rclvl1809 conn=wye bus1=rclv1809.1.2 kV=0.240178 Vminpu=0.95 Vmaxpu=1.05 model=1 kW=1.66002 kvar=0.800219242954 Phases=2

New Load.rclvl1806 conn=wye bus1=rclv1806.1.2 kV=0.240178 Vminpu=0.95 Vmaxpu=1.05 model=1 kW=0.760008 kvar=0.370023806178 Phases=2

New Load.rclvl1807 conn=wye bus1=rclv1807.1.2 kV=0.240178 Vminpu=0.95 Vmaxpu=1.05 model=1 kW=16.1102 kvar=7.79796251853 Phases=2

New Load.rclvl1804 conn=wye bus1=rclv1804.1.2 kV=0.240178 Vminpu=0.95 Vmaxpu=1.05 model=1 kW=0.760008 kvar=0.370023806178 Phases=2

New Load.rclvl1805 conn=wye bus1=rclv1805.1.2 kV=0.240178 Vminpu=0.95 Vmaxpu=1.05 model=1 kW=0.760008 kvar=0.370023806178 Phases=2

New Load.rclvl1802 conn=wye bus1=rclv1802.1.2 kV=0.240178 Vminpu=0.95 Vmaxpu=1.05 model=1 kW=1.66002 kvar=0.800219242954 Phases=2

New Load.rclvl1803 conn=wye bus1=rclv1803.1.2 kV=0.240178 Vminpu=0.95 Vmaxpu=1.05 model=1 kW=1.66002 kvar=0.800219242954 Phases=2

New Load.rclvl1800 conn=wye bus1=rclv1800.1.2 kV=0.240178 Vminpu=0.95 Vmaxpu=1.05 model=1 kW=1.66002 kvar=0.800219242954 Phases=2

New Load.rclvl1801 conn=wye bus1=rclv1801.1.2 kV=0.240178 Vminpu=0.95 Vmaxpu=1.05 model=1 kW=0.760008 kvar=0.370023806178 Phases=2

New Load.rclvl2762 conn=wye bus1=rclv2762.1.2 kV=0.240178 Vminpu=0.95 Vmaxpu=1.05 model=1 kW=2.74003 kvar=1.33015976772 Phases=2

New Load.rclvl2763 conn=wye bus1=rclv2763.1.2 kV=0.240178 Vminpu=0.95 Vmaxpu=1.05 model=1 kW=1.66002 kvar=0.800219242954 Phases=2

New Load.rclvl2092 conn=wye bus1=rclv2092.1.2 kV=0.240178 Vminpu=0.95 Vmaxpu=1.05 model=1 kW=1.66002 kvar=0.800219242954 Phases=2

New Load.rclvl5479 conn=wye bus1=rclv5479.1.2 kV=0.240178 Vminpu=0.95 Vmaxpu=1.05 model=1 kW=0.760008 kvar=0.370023806178 Phases=2

New Load.rclvl2761 conn=wye bus1=rclv2761.1.2 kV=0.240178 Vminpu=0.95 Vmaxpu=1.05 model=1 kW=0.760008 kvar=0.370023806178 Phases=2

New Load.rclvl5473 conn=wye bus1=rclv5473.1.2 kV=0.240178 Vminpu=0.95 Vmaxpu=1.05 model=1 kW=0.760008 kvar=0.370023806178 Phases=2

New Load.rclvl2766 conn=wye bus1=rclv2766.1.2 kV=0.240178 Vminpu=0.95 Vmaxpu=1.05 model=1 kW=0.760008 kvar=0.370023806178 Phases=2

New Load.rclvl5471 conn=wye bus1=rclv5471.1.2 kV=0.240178 Vminpu=0.95 Vmaxpu=1.05 model=1 kW=0.760008 kvar=0.370023806178 Phases=2

New Load.rclvl5470 conn=wye bus1=rclv5469.1.2 kV=0.240178 Vminpu=0.95 Vmaxpu=1.05 model=1 kW=2.74003 kvar=1.33015976772 Phases=2

New Load.rclvl5477 conn=wye bus1=rclv5477.1.2 kV=0.240178 Vminpu=0.95 Vmaxpu=1.05 model=1 kW=1.66002 kvar=0.800219242954 Phases=2

New Load.rclvl5476 conn=wye bus1=rclv5476.1.2 kV=0.240178 Vminpu=0.95 Vmaxpu=1.05 model=1 kW=0.760008 kvar=0.370023806178 Phases=2

New Load.rclvl5475 conn=wye bus1=rclv5475.1.2 kV=0.240178 Vminpu=0.95 Vmaxpu=1.05 model=1 kW=1.66002 kvar=0.800219242954 Phases=2

New Load.rclvl2767 conn=wye bus1=rclv2767.1.2 kV=0.240178 Vminpu=0.95 Vmaxpu=1.05 model=1 kW=0.760008 kvar=0.370023806178 Phases=2

New Load.rclvl2128 conn=wye bus1=rclv2128.1.2 kV=0.240178 Vminpu=0.95 Vmaxpu=1.05 model=1 kW=0.760008 kvar=0.370023806178 Phases=2

New Load.rclvl2129 conn=wye bus1=rclv2129.1.2 kV=0.240178 Vminpu=0.95 Vmaxpu=1.05 model=1 kW=0.760008 kvar=0.370023806178 Phases=2

New Load.rclvl2764 conn=wye bus1=rclv2764.1.2 kV=0.240178 Vminpu=0.95 Vmaxpu=1.05 model=1 kW=1.66002 kvar=0.800219242954 Phases=2

New Load.rclvl5775 conn=wye bus1=rclv5775.1.2 kV=0.240178 Vminpu=0.95 Vmaxpu=1.05 model=1 kW=2.74003 kvar=1.33015976772 Phases=2

New Load.rclvl2120 conn=wye bus1=rclv2120.1.2 kV=0.240178 Vminpu=0.95 Vmaxpu=1.05 model=1 kW=0.760008 kvar=0.370023806178 Phases=2

New Load.rclvl2121 conn=wye bus1=rclv2121.1.2 kV=0.240178 Vminpu=0.95 Vmaxpu=1.05 model=1 kW=1.66002 kvar=0.800219242954 Phases=2

New Load.rclvl2122 conn=wye bus1=rclv2122.1.2 kV=0.240178 Vminpu=0.95 Vmaxpu=1.05 model=1 kW=1.66002 kvar=0.800219242954 Phases=2

New Load.rclvl2123 conn=wye bus1=rclv2123.1.2 kV=0.240178 Vminpu=0.95 Vmaxpu=1.05 model=1 kW=2.74003 kvar=1.33015976772 Phases=2

New Load.rclvl2124 conn=wye bus1=rclv2124.1.2 kV=0.240178 Vminpu=0.95 Vmaxpu=1.05 model=1 kW=0.760008 kvar=0.370023806178 Phases=2

New Load.rclvl2125 conn=wye bus1=rclv2125.1.2 kV=0.240178 Vminpu=0.95 Vmaxpu=1.05 model=1 kW=1.66002 kvar=0.800219242954 Phases=2

New Load.rclvl2126 conn=wye bus1=rclv2126.1.2 kV=0.240178 Vminpu=0.95 Vmaxpu=1.05 model=1 kW=1.66002 kvar=0.800219242954 Phases=2

New Load.rclvl2127 conn=wye bus1=rclv2127.1.2 kV=0.240178 Vminpu=0.95 Vmaxpu=1.05 model=1 kW=0.760008 kvar=0.370023806178 Phases=2

New Load.rclvl5777 conn=wye bus1=rclv5777.1.2 kV=0.240178 Vminpu=0.95 Vmaxpu=1.05 model=1 kW=16.1102 kvar=7.79796251853 Phases=2

New Load.rclvl5770 conn=wye bus1=rclv5770.1.2 kV=0.240178 Vminpu=0.95 Vmaxpu=1.05 model=1 kW=2.74003 kvar=1.33015976772 Phases=2

New Load.rclvl5771 conn=wye bus1=rclv5771.1.2 kV=0.240178 Vminpu=0.95 Vmaxpu=1.05 model=1 kW=1.66002 kvar=0.800219242954 Phases=2

New Load.rclvl2769 conn=wye bus1=rclv2769.1.2 kV=0.240178 Vminpu=0.95 Vmaxpu=1.05 model=1 kW=1.66002 kvar=0.800219242954 Phases=2

New Load.rclvl5772 conn=wye bus1=rclv5772.1.2 kV=0.240178 Vminpu=0.95 Vmaxpu=1.05 model=1 kW=2.74003 kvar=1.33015976772 Phases=2

New Load.rclvl5773 conn=wye bus1=rclv5773.1.2 kV=0.240178 Vminpu=0.95 Vmaxpu=1.05 model=1 kW=0.760008 kvar=0.370023806178 Phases=2

New Load.rclvl668 conn=wye bus1=rclv668.1.2 kV=0.240178 Vminpu=0.95 Vmaxpu=1.05 model=1 kW=1.66002 kvar=0.800219242954 Phases=2

New Load.rclvl669 conn=wye bus1=rclv669.1.2 kV=0.240178 Vminpu=0.95 Vmaxpu=1.05 model=1 kW=0.760008 kvar=0.370023806178 Phases=2

New Load.rclvl664 conn=wye bus1=rclv664.1.2 kV=0.240178 Vminpu=0.95 Vmaxpu=1.05 model=1 kW=1.66002 kvar=0.800219242954 Phases=2

New Load.rclvl665 conn=wye bus1=rclv665.1.2 kV=0.240178 Vminpu=0.95 Vmaxpu=1.05 model=1 kW=1.66002 kvar=0.800219242954 Phases=2

New Load.rclvl666 conn=wye bus1=rclv666.1.2 kV=0.240178 Vminpu=0.95 Vmaxpu=1.05 model=1 kW=0.760008 kvar=0.370023806178 Phases=2

New Load.rclvl667 conn=wye bus1=rclv667.1.2 kV=0.240178 Vminpu=0.95 Vmaxpu=1.05 model=1 kW=0.760008 kvar=0.370023806178 Phases=2

New Load.rclvl660 conn=wye bus1=rclv660.1.2 kV=0.240178 Vminpu=0.95 Vmaxpu=1.05 model=1 kW=1.66002 kvar=0.800219242954 Phases=2

New Load.rclvl661 conn=wye bus1=rclv661.1.2 kV=0.240178 Vminpu=0.95 Vmaxpu=1.05 model=1 kW=1.66002 kvar=0.800219242954 Phases=2

New Load.rclvl662 conn=wye bus1=rclv662.1.2 kV=0.240178 Vminpu=0.95 Vmaxpu=1.05 model=1 kW=0.760008 kvar=0.370023806178 Phases=2

New Load.rclvl663 conn=wye bus1=rclv663.1.2 kV=0.240178 Vminpu=0.95 Vmaxpu=1.05 model=1 kW=1.66002 kvar=0.800219242954 Phases=2

New Load.rclvl4988 conn=wye bus1=rclv4988.1.2 kV=0.240178 Vminpu=0.95 Vmaxpu=1.05 model=1 kW=0.760008 kvar=0.370023806178 Phases=2

New Load.rclvl4989 conn=wye bus1=rclv4989.1.2 kV=0.240178 Vminpu=0.95 Vmaxpu=1.05 model=1 kW=1.66002 kvar=0.800219242954 Phases=2

New Load.rclvl1410 conn=wye bus1=rclv1410.1.2 kV=0.240178 Vminpu=0.95 Vmaxpu=1.05 model=1 kW=1.66002 kvar=0.800219242954 Phases=2

New Load.rclvl4980 conn=wye bus1=rclv4980.1.2 kV=0.240178 Vminpu=0.95 Vmaxpu=1.05 model=1 kW=0.760008 kvar=0.370023806178 Phases=2

New Load.rclvl4981 conn=wye bus1=rclv4981.1.2 kV=0.240178 Vminpu=0.95 Vmaxpu=1.05 model=1 kW=0.760008 kvar=0.370023806178 Phases=2

New Load.rclvl4982 conn=wye bus1=rclv4982.1.2 kV=0.240178 Vminpu=0.95 Vmaxpu=1.05 model=1 kW=0.760008 kvar=0.370023806178 Phases=2

New Load.rclvl4983 conn=wye bus1=rclv4983.1.2 kV=0.240178 Vminpu=0.95 Vmaxpu=1.05 model=1 kW=1.66002 kvar=0.800219242954 Phases=2

New Load.rclvl4984 conn=wye bus1=rclv4984.1.2 kV=0.240178 Vminpu=0.95 Vmaxpu=1.05 model=1 kW=0.760008 kvar=0.370023806178 Phases=2

New Load.rclvl4985 conn=wye bus1=rclv4985.1.2 kV=0.240178 Vminpu=0.95 Vmaxpu=1.05 model=1 kW=1.66002 kvar=0.800219242954 Phases=2

New Load.rclvl4986 conn=wye bus1=rclv4986.1.2 kV=0.240178 Vminpu=0.95 Vmaxpu=1.05 model=1 kW=0.760008 kvar=0.370023806178 Phases=2

New Load.rclvl4987 conn=wye bus1=rclv4987.1.2 kV=0.240178 Vminpu=0.95 Vmaxpu=1.05 model=1 kW=0.760008 kvar=0.370023806178 Phases=2

New Load.rclvl598 conn=wye bus1=rclv598.1.2 kV=0.240178 Vminpu=0.95 Vmaxpu=1.05 model=1 kW=1.66002 kvar=0.800219242954 Phases=2

New Load.rclvl599 conn=wye bus1=rclv599.1.2 kV=0.240178 Vminpu=0.95 Vmaxpu=1.05 model=1 kW=38.2504 kvar=18.5255142389 Phases=2

New Load.rclvl592 conn=wye bus1=rclv592.1.2 kV=0.240178 Vminpu=0.95 Vmaxpu=1.05 model=1 kW=0.760008 kvar=0.370023806178 Phases=2

New Load.rclvl593 conn=wye bus1=rclv593.1.2 kV=0.240178 Vminpu=0.95 Vmaxpu=1.05 model=1 kW=0.760008 kvar=0.370023806178 Phases=2

New Load.rclvl590 conn=wye bus1=rclv590.1.2 kV=0.240178 Vminpu=0.95 Vmaxpu=1.05 model=1 kW=0.760008 kvar=0.370023806178 Phases=2

New Load.rclvl591 conn=wye bus1=rclv591.1.2 kV=0.240178 Vminpu=0.95 Vmaxpu=1.05 model=1 kW=1.66002 kvar=0.800219242954 Phases=2

New Load.rclvl596 conn=wye bus1=rclv596.1.2 kV=0.240178 Vminpu=0.95 Vmaxpu=1.05 model=1 kW=1.66002 kvar=0.800219242954 Phases=2

New Load.rclvl597 conn=wye bus1=rclv597.1.2 kV=0.240178 Vminpu=0.95 Vmaxpu=1.05 model=1 kW=1.66002 kvar=0.800219242954 Phases=2

New Load.rclvl594 conn=wye bus1=rclv594.1.2 kV=0.240178 Vminpu=0.95 Vmaxpu=1.05 model=1 kW=1.66002 kvar=0.800219242954 Phases=2

New Load.rclvl595 conn=wye bus1=rclv595.1.2 kV=0.240178 Vminpu=0.95 Vmaxpu=1.05 model=1 kW=1.66002 kvar=0.800219242954 Phases=2

New Load.rclvl1417 conn=wye bus1=rclv1417.1.2 kV=0.240178 Vminpu=0.95 Vmaxpu=1.05 model=1 kW=0.760008 kvar=0.370023806178 Phases=2

New Load.rclvl1416 conn=wye bus1=rclv1416.1.2 kV=0.240178 Vminpu=0.95 Vmaxpu=1.05 model=1 kW=0.760008 kvar=0.370023806178 Phases=2

New Load.rclvl1419 conn=wye bus1=rclv1419.1.2 kV=0.240178 Vminpu=0.95 Vmaxpu=1.05 model=1 kW=38.2504 kvar=18.5255142389 Phases=2

New Load.rclvl1418 conn=wye bus1=rclv1418.1.2 kV=0.240178 Vminpu=0.95 Vmaxpu=1.05 model=1 kW=0.760008 kvar=0.370023806178 Phases=2

New Load.rclvl3459 conn=wye bus1=rclv3459.1.2 kV=0.240178 Vminpu=0.95 Vmaxpu=1.05 model=1 kW=0.760008 kvar=0.370023806178 Phases=2

New Load.rclvl3458 conn=wye bus1=rclv3458.1.2 kV=0.240178 Vminpu=0.95 Vmaxpu=1.05 model=1 kW=0.760008 kvar=0.370023806178 Phases=2

New Load.rclvl3457 conn=wye bus1=rclv3457.1.2 kV=0.240178 Vminpu=0.95 Vmaxpu=1.05 model=1 kW=1.66002 kvar=0.800219242954 Phases=2

New Load.rclvl3456 conn=wye bus1=rclv3456.1.2 kV=0.240178 Vminpu=0.95 Vmaxpu=1.05 model=1 kW=0.760008 kvar=0.370023806178 Phases=2

New Load.rclvl3455 conn=wye bus1=rclv3455.1.2 kV=0.240178 Vminpu=0.95 Vmaxpu=1.05 model=1 kW=2.74003 kvar=1.33015976772 Phases=2

New Load.rclvl3454 conn=wye bus1=rclv3454.1.2 kV=0.240178 Vminpu=0.95 Vmaxpu=1.05 model=1 kW=2.74003 kvar=1.33015976772 Phases=2

New Load.rclvl3453 conn=wye bus1=rclv3453.1.2 kV=0.240178 Vminpu=0.95 Vmaxpu=1.05 model=1 kW=1.66002 kvar=0.800219242954 Phases=2

New Load.rclvl3452 conn=wye bus1=rclv3452.1.2 kV=0.240178 Vminpu=0.95 Vmaxpu=1.05 model=1 kW=1.66002 kvar=0.800219242954 Phases=2

New Load.rclvl3451 conn=wye bus1=rclv3451.1.2 kV=0.240178 Vminpu=0.95 Vmaxpu=1.05 model=1 kW=1.66002 kvar=0.800219242954 Phases=2

New Load.rclvl3450 conn=wye bus1=rclv3450.1.2 kV=0.240178 Vminpu=0.95 Vmaxpu=1.05 model=1 kW=2.74003 kvar=1.33015976772 Phases=2

New Load.rclvl3181 conn=wye bus1=rclv3181.1.2 kV=0.240178 Vminpu=0.95 Vmaxpu=1.05 model=1 kW=1.66002 kvar=0.800219242954 Phases=2

New Load.rclvl3180 conn=wye bus1=rclv3180.1.2 kV=0.240178 Vminpu=0.95 Vmaxpu=1.05 model=1 kW=1.66002 kvar=0.800219242954 Phases=2

New Load.rclvl3183 conn=wye bus1=rclv3183.1.2 kV=0.240178 Vminpu=0.95 Vmaxpu=1.05 model=1 kW=1.66002 kvar=0.800219242954 Phases=2

New Load.rclvl3182 conn=wye bus1=rclv3182.1.2 kV=0.240178 Vminpu=0.95 Vmaxpu=1.05 model=1 kW=1.66002 kvar=0.800219242954 Phases=2

New Load.rclvl3185 conn=wye bus1=rclv3185.1.2 kV=0.240178 Vminpu=0.95 Vmaxpu=1.05 model=1 kW=2.74003 kvar=1.33015976772 Phases=2

New Load.rclvl3184 conn=wye bus1=rclv3184.1.2 kV=0.240178 Vminpu=0.95 Vmaxpu=1.05 model=1 kW=2.74003 kvar=1.33015976772 Phases=2

New Load.rclvl3187 conn=wye bus1=rclv3187.1.2 kV=0.240178 Vminpu=0.95 Vmaxpu=1.05 model=1 kW=1.66002 kvar=0.800219242954 Phases=2

New Load.rclvl3186 conn=wye bus1=rclv3186.1.2 kV=0.240178 Vminpu=0.95 Vmaxpu=1.05 model=1 kW=0.760008 kvar=0.370023806178 Phases=2

New Load.rclvl3189 conn=wye bus1=rclv3189.1.2 kV=0.240178 Vminpu=0.95 Vmaxpu=1.05 model=1 kW=1.66002 kvar=0.800219242954 Phases=2

New Load.rclvl3188 conn=wye bus1=rclv3188.1.2 kV=0.240178 Vminpu=0.95 Vmaxpu=1.05 model=1 kW=2.74003 kvar=1.33015976772 Phases=2

New Load.rclvl3990 conn=wye bus1=rclv3991.1.2 kV=0.240178 Vminpu=0.95 Vmaxpu=1.05 model=1 kW=1.66002 kvar=0.800219242954 Phases=2

New Load.rclvl3991 conn=wye bus1=rclv3991.1.2 kV=0.240178 Vminpu=0.95 Vmaxpu=1.05 model=1 kW=1.66002 kvar=0.800219242954 Phases=2

New Load.rclvl1894 conn=wye bus1=rclv1894.1.2 kV=0.240178 Vminpu=0.95 Vmaxpu=1.05 model=1 kW=1.66002 kvar=0.800219242954 Phases=2

New Load.rclvl3996 conn=wye bus1=rclv3996.1.2 kV=0.240178 Vminpu=0.95 Vmaxpu=1.05 model=1 kW=0.760008 kvar=0.370023806178 Phases=2

New Load.rclvl3997 conn=wye bus1=rclv3997.1.2 kV=0.240178 Vminpu=0.95 Vmaxpu=1.05 model=1 kW=1.66002 kvar=0.800219242954 Phases=2

New Load.rclvl3994 conn=wye bus1=rclv3994.1.2 kV=0.240178 Vminpu=0.95 Vmaxpu=1.05 model=1 kW=2.74003 kvar=1.33015976772 Phases=2

New Load.rclvl3995 conn=wye bus1=rclv3995.1.2 kV=0.240178 Vminpu=0.95 Vmaxpu=1.05 model=1 kW=0.760008 kvar=0.370023806178 Phases=2

New Load.rclvl3989 conn=wye bus1=rclv3989.1.2 kV=0.240178 Vminpu=0.95 Vmaxpu=1.05 model=1 kW=2.74003 kvar=1.33015976772 Phases=2

New Load.rclvl3988 conn=wye bus1=rclv3988.1.2 kV=0.240178 Vminpu=0.95 Vmaxpu=1.05 model=1 kW=1.66002 kvar=0.800219242954 Phases=2

New Load.rclvl3239 conn=wye bus1=rclv3239.1.2 kV=0.240178 Vminpu=0.95 Vmaxpu=1.05 model=1 kW=1.66002 kvar=0.800219242954 Phases=2

New Load.rclvl3238 conn=wye bus1=rclv3238.1.2 kV=0.240178 Vminpu=0.95 Vmaxpu=1.05 model=1 kW=1.66002 kvar=0.800219242954 Phases=2

New Load.rclvl3233 conn=wye bus1=rclv3233.1.2 kV=0.240178 Vminpu=0.95 Vmaxpu=1.05 model=1 kW=1.66002 kvar=0.800219242954 Phases=2

New Load.rclvl3232 conn=wye bus1=rclv3232.1.2 kV=0.240178 Vminpu=0.95 Vmaxpu=1.05 model=1 kW=38.2504 kvar=18.5255142389 Phases=2

New Load.rclvl3231 conn=wye bus1=rclv3231.1.2 kV=0.240178 Vminpu=0.95 Vmaxpu=1.05 model=1 kW=1.66002 kvar=0.800219242954 Phases=2

New Load.rclvl3230 conn=wye bus1=rclv3230.1.2 kV=0.240178 Vminpu=0.95 Vmaxpu=1.05 model=1 kW=16.1102 kvar=7.79796251853 Phases=2

New Load.rclvl3237 conn=wye bus1=rclv3237.1.2 kV=0.240178 Vminpu=0.95 Vmaxpu=1.05 model=1 kW=1.66002 kvar=0.800219242954 Phases=2

New Load.rclvl3236 conn=wye bus1=rclv3236.1.2 kV=0.240178 Vminpu=0.95 Vmaxpu=1.05 model=1 kW=1.66002 kvar=0.800219242954 Phases=2

New Load.rclvl3235 conn=wye bus1=rclv3235.1.2 kV=0.240178 Vminpu=0.95 Vmaxpu=1.05 model=1 kW=2.74003 kvar=1.33015976772 Phases=2

New Load.rclvl3234 conn=wye bus1=rclv3234.1.2 kV=0.240178 Vminpu=0.95 Vmaxpu=1.05 model=1 kW=1.66002 kvar=0.800219242954 Phases=2

New Load.rclvl6192 conn=wye bus1=rclv6192.1.2 kV=0.240178 Vminpu=0.95 Vmaxpu=1.05 model=1 kW=1.66002 kvar=0.800219242954 Phases=2

New Load.rclvl1583 conn=wye bus1=rclv1583.1.2 kV=0.240178 Vminpu=0.95 Vmaxpu=1.05 model=1 kW=1.66002 kvar=0.800219242954 Phases=2

New Load.rclvl1582 conn=wye bus1=rclv1582.1.2 kV=0.240178 Vminpu=0.95 Vmaxpu=1.05 model=1 kW=1.66002 kvar=0.800219242954 Phases=2

New Load.rclvl1581 conn=wye bus1=rclv1581.1.2 kV=0.240178 Vminpu=0.95 Vmaxpu=1.05 model=1 kW=2.74003 kvar=1.33015976772 Phases=2

New Load.rclvl1580 conn=wye bus1=rclv1580.1.2 kV=0.240178 Vminpu=0.95 Vmaxpu=1.05 model=1 kW=1.66002 kvar=0.800219242954 Phases=2

New Load.rclvl1587 conn=wye bus1=rclv1587.1.2 kV=0.240178 Vminpu=0.95 Vmaxpu=1.05 model=1 kW=0.760008 kvar=0.370023806178 Phases=2

New Load.rclvl1586 conn=wye bus1=rclv1586.1.2 kV=0.240178 Vminpu=0.95 Vmaxpu=1.05 model=1 kW=1.66002 kvar=0.800219242954 Phases=2

New Load.rclvl1585 conn=wye bus1=rclv1585.1.2 kV=0.240178 Vminpu=0.95 Vmaxpu=1.05 model=1 kW=2.74003 kvar=1.33015976772 Phases=2

New Load.rclvl1584 conn=wye bus1=rclv1584.1.2 kV=0.240178 Vminpu=0.95 Vmaxpu=1.05 model=1 kW=1.66002 kvar=0.800219242954 Phases=2

New Load.rclvl1589 conn=wye bus1=rclv1589.1.2 kV=0.240178 Vminpu=0.95 Vmaxpu=1.05 model=1 kW=0.760008 kvar=0.370023806178 Phases=2

New Load.rclvl1588 conn=wye bus1=rclv1588.1.2 kV=0.240178 Vminpu=0.95 Vmaxpu=1.05 model=1 kW=0.760008 kvar=0.370023806178 Phases=2

New Load.rclvl5114 conn=wye bus1=rclv5114.1.2 kV=0.240178 Vminpu=0.95 Vmaxpu=1.05 model=1 kW=1.66002 kvar=0.800219242954 Phases=2

New Load.rclvl5115 conn=wye bus1=rclv5115.1.2 kV=0.240178 Vminpu=0.95 Vmaxpu=1.05 model=1 kW=38.2504 kvar=18.5255142389 Phases=2

New Load.rclvl5116 conn=wye bus1=rclv5116.1.2 kV=0.240178 Vminpu=0.95 Vmaxpu=1.05 model=1 kW=1.66002 kvar=0.800219242954 Phases=2

New Load.rclvl5117 conn=wye bus1=rclv5117.1.2 kV=0.240178 Vminpu=0.95 Vmaxpu=1.05 model=1 kW=0.760008 kvar=0.370023806178 Phases=2

New Load.rclvl5110 conn=wye bus1=rclv5110.1.2 kV=0.240178 Vminpu=0.95 Vmaxpu=1.05 model=1 kW=1.66002 kvar=0.800219242954 Phases=2

New Load.rclvl5111 conn=wye bus1=rclv5111.1.2 kV=0.240178 Vminpu=0.95 Vmaxpu=1.05 model=1 kW=0.760008 kvar=0.370023806178 Phases=2

New Load.rclvl5112 conn=wye bus1=rclv5112.1.2 kV=0.240178 Vminpu=0.95 Vmaxpu=1.05 model=1 kW=1.66002 kvar=0.800219242954 Phases=2

New Load.rclvl5113 conn=wye bus1=rclv5113.1.2 kV=0.240178 Vminpu=0.95 Vmaxpu=1.05 model=1 kW=0.760008 kvar=0.370023806178 Phases=2

New Load.rclvl5118 conn=wye bus1=rclv5118.1.2 kV=0.240178 Vminpu=0.95 Vmaxpu=1.05 model=1 kW=2.74003 kvar=1.33015976772 Phases=2

New Load.rclvl5119 conn=wye bus1=rclv5119.1.2 kV=0.240178 Vminpu=0.95 Vmaxpu=1.05 model=1 kW=0.760008 kvar=0.370023806178 Phases=2

New Load.rclvl4607 conn=wye bus1=rclv4607.1.2 kV=0.240178 Vminpu=0.95 Vmaxpu=1.05 model=1 kW=38.2504 kvar=18.5255142389 Phases=2

New Load.rclvl4606 conn=wye bus1=rclv4606.1.2 kV=0.240178 Vminpu=0.95 Vmaxpu=1.05 model=1 kW=1.66002 kvar=0.800219242954 Phases=2

New Load.rclvl4605 conn=wye bus1=rclv4604.1.2 kV=0.240178 Vminpu=0.95 Vmaxpu=1.05 model=1 kW=2.74003 kvar=1.33015976772 Phases=2

New Load.rclvl4604 conn=wye bus1=rclv4604.1.2 kV=0.240178 Vminpu=0.95 Vmaxpu=1.05 model=1 kW=0.760008 kvar=0.370023806178 Phases=2

New Load.rclvl4603 conn=wye bus1=rclv4603.1.2 kV=0.240178 Vminpu=0.95 Vmaxpu=1.05 model=1 kW=2.74003 kvar=1.33015976772 Phases=2

New Load.rclvl4602 conn=wye bus1=rclv4602.1.2 kV=0.240178 Vminpu=0.95 Vmaxpu=1.05 model=1 kW=1.66002 kvar=0.800219242954 Phases=2

New Load.rclvl4601 conn=wye bus1=rclv4601.1.2 kV=0.240178 Vminpu=0.95 Vmaxpu=1.05 model=1 kW=1.66002 kvar=0.800219242954 Phases=2

New Load.rclvl4600 conn=wye bus1=rclv4601.1.2 kV=0.240178 Vminpu=0.95 Vmaxpu=1.05 model=1 kW=0.760008 kvar=0.370023806178 Phases=2

New Load.rclvl4609 conn=wye bus1=rclv4610.1.2 kV=0.240178 Vminpu=0.95 Vmaxpu=1.05 model=1 kW=1.66002 kvar=0.800219242954 Phases=2

New Load.rclvl4608 conn=wye bus1=rclv4608.1.2 kV=0.240178 Vminpu=0.95 Vmaxpu=1.05 model=1 kW=1.66002 kvar=0.800219242954 Phases=2

New Load.rclvl2465 conn=wye bus1=rclv2465.1.2 kV=0.240178 Vminpu=0.95 Vmaxpu=1.05 model=1 kW=1.66002 kvar=0.800219242954 Phases=2

New Load.rclvl2464 conn=wye bus1=rclv2464.1.2 kV=0.240178 Vminpu=0.95 Vmaxpu=1.05 model=1 kW=1.66002 kvar=0.800219242954 Phases=2

New Load.rclvl2467 conn=wye bus1=rclv2467.1.2 kV=0.240178 Vminpu=0.95 Vmaxpu=1.05 model=1 kW=1.66002 kvar=0.800219242954 Phases=2

New Load.rclvl2466 conn=wye bus1=rclv2466.1.2 kV=0.240178 Vminpu=0.95 Vmaxpu=1.05 model=1 kW=0.760008 kvar=0.370023806178 Phases=2

New Load.rclvl2461 conn=wye bus1=rclv2461.1.2 kV=0.240178 Vminpu=0.95 Vmaxpu=1.05 model=1 kW=1.66002 kvar=0.800219242954 Phases=2

New Load.rclvl2460 conn=wye bus1=rclv2460.1.2 kV=0.240178 Vminpu=0.95 Vmaxpu=1.05 model=1 kW=1.66002 kvar=0.800219242954 Phases=2

New Load.rclvl2463 conn=wye bus1=rclv2463.1.2 kV=0.240178 Vminpu=0.95 Vmaxpu=1.05 model=1 kW=1.66002 kvar=0.800219242954 Phases=2

New Load.rclvl2462 conn=wye bus1=rclv2462.1.2 kV=0.240178 Vminpu=0.95 Vmaxpu=1.05 model=1 kW=2.74003 kvar=1.33015976772 Phases=2

New Load.rclvl2469 conn=wye bus1=rclv2469.1.2 kV=0.240178 Vminpu=0.95 Vmaxpu=1.05 model=1 kW=0.760008 kvar=0.370023806178 Phases=2

New Load.rclvl2468 conn=wye bus1=rclv2468.1.2 kV=0.240178 Vminpu=0.95 Vmaxpu=1.05 model=1 kW=0.760008 kvar=0.370023806178 Phases=2

New Load.rclvl6111 conn=wye bus1=rclv6111.1.2 kV=0.240178 Vminpu=0.95 Vmaxpu=1.05 model=1 kW=1.66002 kvar=0.800219242954 Phases=2

New Load.rclvl3383 conn=wye bus1=rclv3383.1.2 kV=0.240178 Vminpu=0.95 Vmaxpu=1.05 model=1 kW=38.2504 kvar=18.5255142389 Phases=2

New Load.rclvl6113 conn=wye bus1=rclv6113.1.2 kV=0.240178 Vminpu=0.95 Vmaxpu=1.05 model=1 kW=0.760008 kvar=0.370023806178 Phases=2

New Load.rclvl6112 conn=wye bus1=rclv6112.1.2 kV=0.240178 Vminpu=0.95 Vmaxpu=1.05 model=1 kW=0.760008 kvar=0.370023806178 Phases=2

New Load.rclvl6115 conn=wye bus1=rclv6115.1.2 kV=0.240178 Vminpu=0.95 Vmaxpu=1.05 model=1 kW=2.74003 kvar=1.33015976772 Phases=2

New Load.rclvl6114 conn=wye bus1=rclv6114.1.2 kV=0.240178 Vminpu=0.95 Vmaxpu=1.05 model=1 kW=1.66002 kvar=0.800219242954 Phases=2

New Load.rclvl6117 conn=wye bus1=rclv6117.1.2 kV=0.240178 Vminpu=0.95 Vmaxpu=1.05 model=1 kW=0.760008 kvar=0.370023806178 Phases=2

New Load.rclvl575 conn=wye bus1=rclv575.1.2 kV=0.240178 Vminpu=0.95 Vmaxpu=1.05 model=1 kW=2.74003 kvar=1.33015976772 Phases=2

New Load.rclvl6119 conn=wye bus1=rclv6119.1.2 kV=0.240178 Vminpu=0.95 Vmaxpu=1.05 model=1 kW=2.74003 kvar=1.33015976772 Phases=2

New Load.rclvl6118 conn=wye bus1=rclv6118.1.2 kV=0.240178 Vminpu=0.95 Vmaxpu=1.05 model=1 kW=2.74003 kvar=1.33015976772 Phases=2

New Load.rclvl576 conn=wye bus1=rclv576.1.2 kV=0.240178 Vminpu=0.95 Vmaxpu=1.05 model=1 kW=2.74003 kvar=1.33015976772 Phases=2

New Load.rclvl2601 conn=wye bus1=rclv2601.1.2 kV=0.240178 Vminpu=0.95 Vmaxpu=1.05 model=1 kW=1.66002 kvar=0.800219242954 Phases=2

New Load.rclvl2600 conn=wye bus1=rclv2600u kV=12.47 Vminpu=0.95 Vmaxpu=1.05 model=1 kW=139.551 kvar=67.5876340522 Phases=3

New Load.rclvl2603 conn=wye bus1=rclv2603.1.2 kV=0.240178 Vminpu=0.95 Vmaxpu=1.05 model=1 kW=1.66002 kvar=0.800219242954 Phases=2

New Load.rclvl2602 conn=wye bus1=rclv2602.1.2 kV=0.240178 Vminpu=0.95 Vmaxpu=1.05 model=1 kW=1.66002 kvar=0.800219242954 Phases=2

New Load.rclvl2605 conn=wye bus1=rclv2605.1.2 kV=0.240178 Vminpu=0.95 Vmaxpu=1.05 model=1 kW=1.66002 kvar=0.800219242954 Phases=2

New Load.rclvl2604 conn=wye bus1=rclv2604.1.2 kV=0.240178 Vminpu=0.95 Vmaxpu=1.05 model=1 kW=1.66002 kvar=0.800219242954 Phases=2

New Load.rclvl2607 conn=wye bus1=rclv2607.1.2 kV=0.240178 Vminpu=0.95 Vmaxpu=1.05 model=1 kW=0.760008 kvar=0.370023806178 Phases=2

New Load.rclvl2606 conn=wye bus1=rclv2606.1.2 kV=0.240178 Vminpu=0.95 Vmaxpu=1.05 model=1 kW=0.760008 kvar=0.370023806178 Phases=2

New Load.rclvl2609 conn=wye bus1=rclv2609.1.2 kV=0.240178 Vminpu=0.95 Vmaxpu=1.05 model=1 kW=2.74003 kvar=1.33015976772 Phases=2

New Load.rclvl2608 conn=wye bus1=rclv2608.1.2 kV=0.240178 Vminpu=0.95 Vmaxpu=1.05 model=1 kW=1.66002 kvar=0.800219242954 Phases=2

New Load.rclvl571 conn=wye bus1=rclv571.1.2 kV=0.240178 Vminpu=0.95 Vmaxpu=1.05 model=1 kW=1.66002 kvar=0.800219242954 Phases=2

New Load.rclvl572 conn=wye bus1=rclv572.1.2 kV=0.240178 Vminpu=0.95 Vmaxpu=1.05 model=1 kW=0.760008 kvar=0.370023806178 Phases=2

New Load.rclvl573 conn=wye bus1=rclv573.1.2 kV=0.240178 Vminpu=0.95 Vmaxpu=1.05 model=1 kW=0.760008 kvar=0.370023806178 Phases=2

New Load.rclvl431 conn=wye bus1=rclv431.1.2 kV=0.240178 Vminpu=0.95 Vmaxpu=1.05 model=1 kW=1.66002 kvar=0.800219242954 Phases=2

New Load.rclvl430 conn=wye bus1=rclv430.1.2 kV=0.240178 Vminpu=0.95 Vmaxpu=1.05 model=1 kW=0.760008 kvar=0.370023806178 Phases=2

New Load.rclvl433 conn=wye bus1=rclv433.1.2 kV=0.240178 Vminpu=0.95 Vmaxpu=1.05 model=1 kW=1.66002 kvar=0.800219242954 Phases=2

New Load.rclvl432 conn=wye bus1=rclv432.1.2 kV=0.240178 Vminpu=0.95 Vmaxpu=1.05 model=1 kW=1.66002 kvar=0.800219242954 Phases=2

New Load.rclvl435 conn=wye bus1=rclv435.1.2 kV=0.240178 Vminpu=0.95 Vmaxpu=1.05 model=1 kW=0.760008 kvar=0.370023806178 Phases=2

New Load.rclvl434 conn=wye bus1=rclv434.1.2 kV=0.240178 Vminpu=0.95 Vmaxpu=1.05 model=1 kW=1.66002 kvar=0.800219242954 Phases=2

New Load.rclvl437 conn=wye bus1=rclv437.1.2 kV=0.240178 Vminpu=0.95 Vmaxpu=1.05 model=1 kW=0.760008 kvar=0.370023806178 Phases=2

New Load.rclvl436 conn=wye bus1=rclv436.1.2 kV=0.240178 Vminpu=0.95 Vmaxpu=1.05 model=1 kW=1.66002 kvar=0.800219242954 Phases=2

New Load.rclvl439 conn=wye bus1=rclv439.1.2 kV=0.240178 Vminpu=0.95 Vmaxpu=1.05 model=1 kW=0.760008 kvar=0.370023806178 Phases=2

New Load.rclvl438 conn=wye bus1=rclv438.1.2 kV=0.240178 Vminpu=0.95 Vmaxpu=1.05 model=1 kW=38.2504 kvar=18.5255142389 Phases=2

New Load.rclvl129 conn=wye bus1=rclv129.1.2 kV=0.240178 Vminpu=0.95 Vmaxpu=1.05 model=1 kW=1.66002 kvar=0.800219242954 Phases=2

New Load.rclvl128 conn=wye bus1=rclv128.1.2 kV=0.240178 Vminpu=0.95 Vmaxpu=1.05 model=1 kW=0.760008 kvar=0.370023806178 Phases=2

New Load.rclvl2202 conn=wye bus1=rclv2202.1.2 kV=0.240178 Vminpu=0.95 Vmaxpu=1.05 model=1 kW=1.66002 kvar=0.800219242954 Phases=2

New Load.rclvl5554 conn=wye bus1=rclv5554.1.2 kV=0.240178 Vminpu=0.95 Vmaxpu=1.05 model=1 kW=38.2504 kvar=18.5255142389 Phases=2

New Load.rclvl5555 conn=wye bus1=rclv5555.1.2 kV=0.240178 Vminpu=0.95 Vmaxpu=1.05 model=1 kW=1.66002 kvar=0.800219242954 Phases=2

New Load.rclvl5556 conn=wye bus1=rclv5556.1.2 kV=0.240178 Vminpu=0.95 Vmaxpu=1.05 model=1 kW=38.2504 kvar=18.5255142389 Phases=2

New Load.rclvl1178 conn=wye bus1=rclv1178.1.2 kV=0.240178 Vminpu=0.95 Vmaxpu=1.05 model=1 kW=0.760008 kvar=0.370023806178 Phases=2

New Load.rclvl4459 conn=wye bus1=rclv4459.1.2 kV=0.240178 Vminpu=0.95 Vmaxpu=1.05 model=1 kW=1.66002 kvar=0.800219242954 Phases=2

New Load.rclvl4452 conn=wye bus1=rclv4452.1.2 kV=0.240178 Vminpu=0.95 Vmaxpu=1.05 model=1 kW=0.760008 kvar=0.370023806178 Phases=2

New Load.rclvl1173 conn=wye bus1=rclv1173.1.2 kV=0.240178 Vminpu=0.95 Vmaxpu=1.05 model=1 kW=1.66002 kvar=0.800219242954 Phases=2

New Load.rclvl1170 conn=wye bus1=rclv1170.1.2 kV=0.240178 Vminpu=0.95 Vmaxpu=1.05 model=1 kW=1.66002 kvar=0.800219242954 Phases=2

New Load.rclvl4451 conn=wye bus1=rclv4451.1.2 kV=0.240178 Vminpu=0.95 Vmaxpu=1.05 model=1 kW=38.2504 kvar=18.5255142389 Phases=2

New Load.rclvl1176 conn=wye bus1=rclv1176.1.2 kV=0.240178 Vminpu=0.95 Vmaxpu=1.05 model=1 kW=0.760008 kvar=0.370023806178 Phases=2

New Load.rclvl4457 conn=wye bus1=rclv4457.1.2 kV=0.240178 Vminpu=0.95 Vmaxpu=1.05 model=1 kW=1.66002 kvar=0.800219242954 Phases=2

New Load.rclvl1174 conn=wye bus1=rclv1174.1.2 kV=0.240178 Vminpu=0.95 Vmaxpu=1.05 model=1 kW=38.2504 kvar=18.5255142389 Phases=2

New Load.rclvl4455 conn=wye bus1=rclv4455.1.2 kV=0.240178 Vminpu=0.95 Vmaxpu=1.05 model=1 kW=1.66002 kvar=0.800219242954 Phases=2

New Load.rclvl5552 conn=wye bus1=rclv5552.1.2 kV=0.240178 Vminpu=0.95 Vmaxpu=1.05 model=1 kW=1.66002 kvar=0.800219242954 Phases=2

New Load.rclvl5553 conn=wye bus1=rclv5553.1.2 kV=0.240178 Vminpu=0.95 Vmaxpu=1.05 model=1 kW=1.66002 kvar=0.800219242954 Phases=2

New Load.rclvl6344 conn=wye bus1=rclv6344.1.2 kV=0.240178 Vminpu=0.95 Vmaxpu=1.05 model=1 kW=2.74003 kvar=1.33015976772 Phases=2

New Load.rclvl6345 conn=wye bus1=rclv6345.1.2 kV=0.240178 Vminpu=0.95 Vmaxpu=1.05 model=1 kW=1.66002 kvar=0.800219242954 Phases=2

New Load.rclvl6346 conn=wye bus1=rclv6346.1.2 kV=0.240178 Vminpu=0.95 Vmaxpu=1.05 model=1 kW=1.66002 kvar=0.800219242954 Phases=2

New Load.rclvl6347 conn=wye bus1=rclv6347.1.2 kV=0.240178 Vminpu=0.95 Vmaxpu=1.05 model=1 kW=0.760008 kvar=0.370023806178 Phases=2

New Load.rclvl6340 conn=wye bus1=rclv6340.1.2 kV=0.240178 Vminpu=0.95 Vmaxpu=1.05 model=1 kW=1.66002 kvar=0.800219242954 Phases=2

New Load.rclvl6341 conn=wye bus1=rclv6341.1.2 kV=0.240178 Vminpu=0.95 Vmaxpu=1.05 model=1 kW=1.66002 kvar=0.800219242954 Phases=2

New Load.rclvl6342 conn=wye bus1=rclv6342.1.2 kV=0.240178 Vminpu=0.95 Vmaxpu=1.05 model=1 kW=0.760008 kvar=0.370023806178 Phases=2

New Load.rclvl6343 conn=wye bus1=rclv6343.1.2 kV=0.240178 Vminpu=0.95 Vmaxpu=1.05 model=1 kW=2.74003 kvar=1.33015976772 Phases=2

New Load.rclvl6348 conn=wye bus1=rclv6348.1.2 kV=0.240178 Vminpu=0.95 Vmaxpu=1.05 model=1 kW=2.74003 kvar=1.33015976772 Phases=2

New Load.rclvl6349 conn=wye bus1=rclv6349.1.2 kV=0.240178 Vminpu=0.95 Vmaxpu=1.05 model=1 kW=1.66002 kvar=0.800219242954 Phases=2

New Load.rclvl2854 conn=wye bus1=rclv2854.1.2 kV=0.240178 Vminpu=0.95 Vmaxpu=1.05 model=1 kW=1.66002 kvar=0.800219242954 Phases=2

New Load.rclvl2855 conn=wye bus1=rclv2855.1.2 kV=0.240178 Vminpu=0.95 Vmaxpu=1.05 model=1 kW=2.74003 kvar=1.33015976772 Phases=2

New Load.rclvl2856 conn=wye bus1=rclv2856.1.2 kV=0.240178 Vminpu=0.95 Vmaxpu=1.05 model=1 kW=38.2504 kvar=18.5255142389 Phases=2

New Load.rclvl2857 conn=wye bus1=rclv2857.1.2 kV=0.240178 Vminpu=0.95 Vmaxpu=1.05 model=1 kW=1.66002 kvar=0.800219242954 Phases=2

New Load.rclvl2850 conn=wye bus1=rclv2850.1.2 kV=0.240178 Vminpu=0.95 Vmaxpu=1.05 model=1 kW=2.74003 kvar=1.33015976772 Phases=2

New Load.rclvl2851 conn=wye bus1=rclv2851.1.2 kV=0.240178 Vminpu=0.95 Vmaxpu=1.05 model=1 kW=2.74003 kvar=1.33015976772 Phases=2

New Load.rclvl2852 conn=wye bus1=rclv2852.1.2 kV=0.240178 Vminpu=0.95 Vmaxpu=1.05 model=1 kW=0.760008 kvar=0.370023806178 Phases=2

New Load.rclvl2853 conn=wye bus1=rclv2853.1.2 kV=0.240178 Vminpu=0.95 Vmaxpu=1.05 model=1 kW=1.66002 kvar=0.800219242954 Phases=2

New Load.rclvl2858 conn=wye bus1=rclv2858.1.2 kV=0.240178 Vminpu=0.95 Vmaxpu=1.05 model=1 kW=0.760008 kvar=0.370023806178 Phases=2

New Load.rclvl2859 conn=wye bus1=rclv2859.1.2 kV=0.240178 Vminpu=0.95 Vmaxpu=1.05 model=1 kW=0.760008 kvar=0.370023806178 Phases=2

New Load.rclvl1396 conn=wye bus1=rclv1396.1.2 kV=0.240178 Vminpu=0.95 Vmaxpu=1.05 model=1 kW=0.760008 kvar=0.370023806178 Phases=2

New Load.rclvl1397 conn=wye bus1=rclv1397.1.2 kV=0.240178 Vminpu=0.95 Vmaxpu=1.05 model=1 kW=0.760008 kvar=0.370023806178 Phases=2

New Load.rclvl1394 conn=wye bus1=rclv1394.1.2 kV=0.240178 Vminpu=0.95 Vmaxpu=1.05 model=1 kW=1.66002 kvar=0.800219242954 Phases=2

New Load.rclvl1395 conn=wye bus1=rclv1395.1.2 kV=0.240178 Vminpu=0.95 Vmaxpu=1.05 model=1 kW=1.66002 kvar=0.800219242954 Phases=2

New Load.rclvl1392 conn=wye bus1=rclv1392.1.2 kV=0.240178 Vminpu=0.95 Vmaxpu=1.05 model=1 kW=1.66002 kvar=0.800219242954 Phases=2

New Load.rclvl1393 conn=wye bus1=rclv1393.1.2 kV=0.240178 Vminpu=0.95 Vmaxpu=1.05 model=1 kW=0.760008 kvar=0.370023806178 Phases=2

New Load.rclvl1390 conn=wye bus1=rclv1390.1.2 kV=0.240178 Vminpu=0.95 Vmaxpu=1.05 model=1 kW=0.760008 kvar=0.370023806178 Phases=2

New Load.rclvl1111 conn=wye bus1=rclv1111.1.2 kV=0.240178 Vminpu=0.95 Vmaxpu=1.05 model=1 kW=1.66002 kvar=0.800219242954 Phases=2

New Load.rclvl4432 conn=wye bus1=rclv4432.1.2 kV=0.240178 Vminpu=0.95 Vmaxpu=1.05 model=1 kW=1.66002 kvar=0.800219242954 Phases=2

New Load.rclvl1398 conn=wye bus1=rclv1398.1.2 kV=0.240178 Vminpu=0.95 Vmaxpu=1.05 model=1 kW=1.66002 kvar=0.800219242954 Phases=2

New Load.rclvl1399 conn=wye bus1=rclv1399.1.2 kV=0.240178 Vminpu=0.95 Vmaxpu=1.05 model=1 kW=0.760008 kvar=0.370023806178 Phases=2

New Load.rclvl4433 conn=wye bus1=rclv4433.1.2 kV=0.240178 Vminpu=0.95 Vmaxpu=1.05 model=1 kW=2.74003 kvar=1.33015976772 Phases=2

New Load.rclvl4434 conn=wye bus1=rclv4434.1.2 kV=0.240178 Vminpu=0.95 Vmaxpu=1.05 model=1 kW=1.66002 kvar=0.800219242954 Phases=2

New Load.rclvl1115 conn=wye bus1=rclv1115.1.2 kV=0.240178 Vminpu=0.95 Vmaxpu=1.05 model=1 kW=1.66002 kvar=0.800219242954 Phases=2

New Load.rclvl1116 conn=wye bus1=rclv1116.1.2 kV=0.240178 Vminpu=0.95 Vmaxpu=1.05 model=1 kW=2.74003 kvar=1.33015976772 Phases=2

New Load.rclvl4437 conn=wye bus1=rclv4437.1.2 kV=0.240178 Vminpu=0.95 Vmaxpu=1.05 model=1 kW=1.66002 kvar=0.800219242954 Phases=2

New Load.rclvl4438 conn=wye bus1=rclv4438.1.2 kV=0.240178 Vminpu=0.95 Vmaxpu=1.05 model=1 kW=1.66002 kvar=0.800219242954 Phases=2

New Load.rclvl4439 conn=wye bus1=rclv4439.1.2 kV=0.240178 Vminpu=0.95 Vmaxpu=1.05 model=1 kW=38.2504 kvar=18.5255142389 Phases=2

New Load.rclvl14 conn=wye bus1=rclv14.1.2 kV=0.240178 Vminpu=0.95 Vmaxpu=1.05 model=1 kW=0.760008 kvar=0.370023806178 Phases=2

New Load.rclvl15 conn=wye bus1=rclv15.1.2 kV=0.240178 Vminpu=0.95 Vmaxpu=1.05 model=1 kW=38.2504 kvar=18.5255142389 Phases=2

New Load.rclvl16 conn=wye bus1=rclv16.1.2 kV=0.240178 Vminpu=0.95 Vmaxpu=1.05 model=1 kW=2.74003 kvar=1.33015976772 Phases=2

New Load.rclvl17 conn=wye bus1=rclv17.1.2 kV=0.240178 Vminpu=0.95 Vmaxpu=1.05 model=1 kW=1.66002 kvar=0.800219242954 Phases=2

New Load.rclvl10 conn=wye bus1=rclv10.1.2 kV=0.240178 Vminpu=0.95 Vmaxpu=1.05 model=1 kW=1.66002 kvar=0.800219242954 Phases=2

New Load.rclvl11 conn=wye bus1=rclv11.1.2 kV=0.240178 Vminpu=0.95 Vmaxpu=1.05 model=1 kW=1.66002 kvar=0.800219242954 Phases=2

New Load.rclvl12 conn=wye bus1=rclv12.1.2 kV=0.240178 Vminpu=0.95 Vmaxpu=1.05 model=1 kW=2.74003 kvar=1.33015976772 Phases=2

New Load.rclvl13 conn=wye bus1=rclv13.1.2 kV=0.240178 Vminpu=0.95 Vmaxpu=1.05 model=1 kW=1.66002 kvar=0.800219242954 Phases=2

New Load.rclvl958 conn=wye bus1=rclv958.1.2 kV=0.240178 Vminpu=0.95 Vmaxpu=1.05 model=1 kW=1.66002 kvar=0.800219242954 Phases=2

New Load.rclvl959 conn=wye bus1=rclv959.1.2 kV=0.240178 Vminpu=0.95 Vmaxpu=1.05 model=1 kW=1.66002 kvar=0.800219242954 Phases=2

New Load.rclvl18 conn=wye bus1=rclv18.1.2 kV=0.240178 Vminpu=0.95 Vmaxpu=1.05 model=1 kW=1.66002 kvar=0.800219242954 Phases=2

New Load.rclvl19 conn=wye bus1=rclv19.1.2 kV=0.240178 Vminpu=0.95 Vmaxpu=1.05 model=1 kW=1.66002 kvar=0.800219242954 Phases=2

New Load.rclvl1828 conn=wye bus1=rclv1828.1.2 kV=0.240178 Vminpu=0.95 Vmaxpu=1.05 model=1 kW=2.74003 kvar=1.33015976772 Phases=2

New Load.rclvl1829 conn=wye bus1=rclv1829.1.2 kV=0.240178 Vminpu=0.95 Vmaxpu=1.05 model=1 kW=1.66002 kvar=0.800219242954 Phases=2

New Load.rclvl1820 conn=wye bus1=rclv1820.1.2 kV=0.240178 Vminpu=0.95 Vmaxpu=1.05 model=1 kW=0.760008 kvar=0.370023806178 Phases=2

New Load.rclvl1821 conn=wye bus1=rclv1821.1.2 kV=0.240178 Vminpu=0.95 Vmaxpu=1.05 model=1 kW=1.66002 kvar=0.800219242954 Phases=2

New Load.rclvl1822 conn=wye bus1=rclv1822.1.2 kV=0.240178 Vminpu=0.95 Vmaxpu=1.05 model=1 kW=2.74003 kvar=1.33015976772 Phases=2

New Load.rclvl1823 conn=wye bus1=rclv1823.1.2 kV=0.240178 Vminpu=0.95 Vmaxpu=1.05 model=1 kW=0.760008 kvar=0.370023806178 Phases=2

New Load.rclvl1824 conn=wye bus1=rclv1824.1.2 kV=0.240178 Vminpu=0.95 Vmaxpu=1.05 model=1 kW=16.1102 kvar=7.79796251853 Phases=2

New Load.rclvl1825 conn=wye bus1=rclv1825.1.2 kV=0.240178 Vminpu=0.95 Vmaxpu=1.05 model=1 kW=0.760008 kvar=0.370023806178 Phases=2

New Load.rclvl1826 conn=wye bus1=rclv1826.1.2 kV=0.240178 Vminpu=0.95 Vmaxpu=1.05 model=1 kW=1.66002 kvar=0.800219242954 Phases=2

New Load.rclvl1827 conn=wye bus1=rclv1827.1.2 kV=0.240178 Vminpu=0.95 Vmaxpu=1.05 model=1 kW=1.66002 kvar=0.800219242954 Phases=2

New Load.rclvl5495 conn=wye bus1=rclv5495.1.2 kV=0.240178 Vminpu=0.95 Vmaxpu=1.05 model=1 kW=2.74003 kvar=1.33015976772 Phases=2

New Load.rclvl5494 conn=wye bus1=rclv5493.1.2 kV=0.240178 Vminpu=0.95 Vmaxpu=1.05 model=1 kW=0.760008 kvar=0.370023806178 Phases=2

New Load.rclvl5497 conn=wye bus1=rclv5497.1.2 kV=0.240178 Vminpu=0.95 Vmaxpu=1.05 model=1 kW=1.66002 kvar=0.800219242954 Phases=2

New Load.rclvl5496 conn=wye bus1=rclv5496.1.2 kV=0.240178 Vminpu=0.95 Vmaxpu=1.05 model=1 kW=1.66002 kvar=0.800219242954 Phases=2

New Load.rclvl5491 conn=wye bus1=rclv5491.1.2 kV=0.240178 Vminpu=0.95 Vmaxpu=1.05 model=1 kW=2.74003 kvar=1.33015976772 Phases=2

New Load.rclvl5490 conn=wye bus1=rclv5490.1.2 kV=0.240178 Vminpu=0.95 Vmaxpu=1.05 model=1 kW=1.66002 kvar=0.800219242954 Phases=2

New Load.rclvl5493 conn=wye bus1=rclv5493.1.2 kV=0.240178 Vminpu=0.95 Vmaxpu=1.05 model=1 kW=2.74003 kvar=1.33015976772 Phases=2

New Load.rclvl5492 conn=wye bus1=rclv5492.1.2 kV=0.240178 Vminpu=0.95 Vmaxpu=1.05 model=1 kW=2.74003 kvar=1.33015976772 Phases=2

New Load.rclvl5499 conn=wye bus1=rclv5499.1.2 kV=0.240178 Vminpu=0.95 Vmaxpu=1.05 model=1 kW=1.66002 kvar=0.800219242954 Phases=2

New Load.rclvl5498 conn=wye bus1=rclv5498.1.2 kV=0.240178 Vminpu=0.95 Vmaxpu=1.05 model=1 kW=1.66002 kvar=0.800219242954 Phases=2

New Load.rclvl2142 conn=wye bus1=rclv2142.1.2 kV=0.240178 Vminpu=0.95 Vmaxpu=1.05 model=1 kW=2.74003 kvar=1.33015976772 Phases=2

New Load.rclvl2143 conn=wye bus1=rclv2143.1.2 kV=0.240178 Vminpu=0.95 Vmaxpu=1.05 model=1 kW=1.66002 kvar=0.800219242954 Phases=2

New Load.rclvl2140 conn=wye bus1=rclv2140.1.2 kV=0.240178 Vminpu=0.95 Vmaxpu=1.05 model=1 kW=1.66002 kvar=0.800219242954 Phases=2

New Load.rclvl2141 conn=wye bus1=rclv2140.1.2 kV=0.240178 Vminpu=0.95 Vmaxpu=1.05 model=1 kW=1.66002 kvar=0.800219242954 Phases=2

New Load.rclvl2146 conn=wye bus1=rclv2146.1.2 kV=0.240178 Vminpu=0.95 Vmaxpu=1.05 model=1 kW=1.66002 kvar=0.800219242954 Phases=2

New Load.rclvl2147 conn=wye bus1=rclv2147.1.2 kV=0.240178 Vminpu=0.95 Vmaxpu=1.05 model=1 kW=16.1102 kvar=7.79796251853 Phases=2

New Load.rclvl2144 conn=wye bus1=rclv2144.1.2 kV=0.240178 Vminpu=0.95 Vmaxpu=1.05 model=1 kW=2.74003 kvar=1.33015976772 Phases=2

New Load.rclvl2145 conn=wye bus1=rclv2145.1.2 kV=0.240178 Vminpu=0.95 Vmaxpu=1.05 model=1 kW=2.74003 kvar=1.33015976772 Phases=2

New Load.rclvl2148 conn=wye bus1=rclv2148.1.2 kV=0.240178 Vminpu=0.95 Vmaxpu=1.05 model=1 kW=1.66002 kvar=0.800219242954 Phases=2

New Load.rclvl2149 conn=wye bus1=rclv2149.1.2 kV=0.240178 Vminpu=0.95 Vmaxpu=1.05 model=1 kW=1.66002 kvar=0.800219242954 Phases=2

New Load.rclvl608 conn=wye bus1=rclv608.1.2 kV=0.240178 Vminpu=0.95 Vmaxpu=1.05 model=1 kW=1.66002 kvar=0.800219242954 Phases=2

New Load.rclvl609 conn=wye bus1=rclv609.1.2 kV=0.240178 Vminpu=0.95 Vmaxpu=1.05 model=1 kW=1.66002 kvar=0.800219242954 Phases=2

New Load.rclvl602 conn=wye bus1=rclv602.1.2 kV=0.240178 Vminpu=0.95 Vmaxpu=1.05 model=1 kW=0.760008 kvar=0.370023806178 Phases=2

New Load.rclvl603 conn=wye bus1=rclv603.1.2 kV=0.240178 Vminpu=0.95 Vmaxpu=1.05 model=1 kW=1.66002 kvar=0.800219242954 Phases=2

New Load.rclvl600 conn=wye bus1=rclv600.1.2 kV=0.240178 Vminpu=0.95 Vmaxpu=1.05 model=1 kW=1.66002 kvar=0.800219242954 Phases=2

New Load.rclvl601 conn=wye bus1=rclv601.1.2 kV=0.240178 Vminpu=0.95 Vmaxpu=1.05 model=1 kW=2.74003 kvar=1.33015976772 Phases=2

New Load.rclvl606 conn=wye bus1=rclv606.1.2 kV=0.240178 Vminpu=0.95 Vmaxpu=1.05 model=1 kW=0.760008 kvar=0.370023806178 Phases=2

New Load.rclvl607 conn=wye bus1=rclv607.1.2 kV=0.240178 Vminpu=0.95 Vmaxpu=1.05 model=1 kW=0.760008 kvar=0.370023806178 Phases=2

New Load.rclvl604 conn=wye bus1=rclv604.1.2 kV=0.240178 Vminpu=0.95 Vmaxpu=1.05 model=1 kW=1.66002 kvar=0.800219242954 Phases=2

New Load.rclvl605 conn=wye bus1=rclv605.1.2 kV=0.240178 Vminpu=0.95 Vmaxpu=1.05 model=1 kW=1.66002 kvar=0.800219242954 Phases=2

New Load.rclvl3439 conn=wye bus1=rclv3439.1.2 kV=0.240178 Vminpu=0.95 Vmaxpu=1.05 model=1 kW=0.760008 kvar=0.370023806178 Phases=2

New Load.rclvl3438 conn=wye bus1=rclv3438.1.2 kV=0.240178 Vminpu=0.95 Vmaxpu=1.05 model=1 kW=1.66002 kvar=0.800219242954 Phases=2

New Load.rclvl3431 conn=wye bus1=rclv3431.1.2 kV=0.240178 Vminpu=0.95 Vmaxpu=1.05 model=1 kW=1.66002 kvar=0.800219242954 Phases=2

New Load.rclvl3430 conn=wye bus1=rclv3430.1.2 kV=0.240178 Vminpu=0.95 Vmaxpu=1.05 model=1 kW=0.760008 kvar=0.370023806178 Phases=2

New Load.rclvl3433 conn=wye bus1=rclv3433.1.2 kV=0.240178 Vminpu=0.95 Vmaxpu=1.05 model=1 kW=1.66002 kvar=0.800219242954 Phases=2

New Load.rclvl3432 conn=wye bus1=rclv3432.1.2 kV=0.240178 Vminpu=0.95 Vmaxpu=1.05 model=1 kW=1.66002 kvar=0.800219242954 Phases=2

New Load.rclvl3435 conn=wye bus1=rclv3435.1.2 kV=0.240178 Vminpu=0.95 Vmaxpu=1.05 model=1 kW=1.66002 kvar=0.800219242954 Phases=2

New Load.rclvl3434 conn=wye bus1=rclv3434.1.2 kV=0.240178 Vminpu=0.95 Vmaxpu=1.05 model=1 kW=1.66002 kvar=0.800219242954 Phases=2

New Load.rclvl3437 conn=wye bus1=rclv3437.1.2 kV=0.240178 Vminpu=0.95 Vmaxpu=1.05 model=1 kW=1.66002 kvar=0.800219242954 Phases=2

New Load.rclvl3436 conn=wye bus1=rclv3436.1.2 kV=0.240178 Vminpu=0.95 Vmaxpu=1.05 model=1 kW=2.74003 kvar=1.33015976772 Phases=2

New Load.rclvl789 conn=wye bus1=rclv790.1.2 kV=0.240178 Vminpu=0.95 Vmaxpu=1.05 model=1 kW=1.66002 kvar=0.800219242954 Phases=2

New Load.rclvl788 conn=wye bus1=rclv788.1.2 kV=0.240178 Vminpu=0.95 Vmaxpu=1.05 model=1 kW=2.74003 kvar=1.33015976772 Phases=2

New Load.rclvl3138 conn=wye bus1=rclv3138.1.2 kV=0.240178 Vminpu=0.95 Vmaxpu=1.05 model=1 kW=0.760008 kvar=0.370023806178 Phases=2

New Load.rclvl3139 conn=wye bus1=rclv3139.1.2 kV=0.240178 Vminpu=0.95 Vmaxpu=1.05 model=1 kW=0.760008 kvar=0.370023806178 Phases=2

New Load.rclvl4661 conn=wye bus1=rclv4661.1.2 kV=0.240178 Vminpu=0.95 Vmaxpu=1.05 model=1 kW=0.760008 kvar=0.370023806178 Phases=2

New Load.rclvl4660 conn=wye bus1=rclv4660.1.2 kV=0.240178 Vminpu=0.95 Vmaxpu=1.05 model=1 kW=1.66002 kvar=0.800219242954 Phases=2

New Load.rclvl4663 conn=wye bus1=rclv4663.1.2 kV=0.240178 Vminpu=0.95 Vmaxpu=1.05 model=1 kW=1.66002 kvar=0.800219242954 Phases=2

New Load.rclvl4662 conn=wye bus1=rclv4662.1.2 kV=0.240178 Vminpu=0.95 Vmaxpu=1.05 model=1 kW=0.760008 kvar=0.370023806178 Phases=2

New Load.rclvl4665 conn=wye bus1=rclv4665.1.2 kV=0.240178 Vminpu=0.95 Vmaxpu=1.05 model=1 kW=0.760008 kvar=0.370023806178 Phases=2

New Load.rclvl4664 conn=wye bus1=rclv4664.1.2 kV=0.240178 Vminpu=0.95 Vmaxpu=1.05 model=1 kW=0.760008 kvar=0.370023806178 Phases=2

New Load.rclvl4667 conn=wye bus1=rclv4667.1.2 kV=0.240178 Vminpu=0.95 Vmaxpu=1.05 model=1 kW=1.66002 kvar=0.800219242954 Phases=2

New Load.rclvl4666 conn=wye bus1=rclv4666.1.2 kV=0.240178 Vminpu=0.95 Vmaxpu=1.05 model=1 kW=1.66002 kvar=0.800219242954 Phases=2

New Load.rclvl4669 conn=wye bus1=rclv4669.1.2 kV=0.240178 Vminpu=0.95 Vmaxpu=1.05 model=1 kW=1.66002 kvar=0.800219242954 Phases=2

New Load.rclvl4668 conn=wye bus1=rclv4668.1.2 kV=0.240178 Vminpu=0.95 Vmaxpu=1.05 model=1 kW=1.66002 kvar=0.800219242954 Phases=2

New Load.rclvl5398 conn=wye bus1=rclv5398.1.2 kV=0.240178 Vminpu=0.95 Vmaxpu=1.05 model=1 kW=2.74003 kvar=1.33015976772 Phases=2

New Load.rclvl5399 conn=wye bus1=rclv5399.1.2 kV=0.240178 Vminpu=0.95 Vmaxpu=1.05 model=1 kW=1.66002 kvar=0.800219242954 Phases=2

New Load.rclvl5392 conn=wye bus1=rclv5392.1.2 kV=0.240178 Vminpu=0.95 Vmaxpu=1.05 model=1 kW=1.66002 kvar=0.800219242954 Phases=2

New Load.rclvl5393 conn=wye bus1=rclv5393.1.2 kV=0.240178 Vminpu=0.95 Vmaxpu=1.05 model=1 kW=2.74003 kvar=1.33015976772 Phases=2

New Load.rclvl5390 conn=wye bus1=rclv5390.1.2 kV=0.240178 Vminpu=0.95 Vmaxpu=1.05 model=1 kW=1.66002 kvar=0.800219242954 Phases=2

New Load.rclvl5391 conn=wye bus1=rclv5391.1.2 kV=0.240178 Vminpu=0.95 Vmaxpu=1.05 model=1 kW=1.66002 kvar=0.800219242954 Phases=2

New Load.rclvl5396 conn=wye bus1=rclv5396.1.2 kV=0.240178 Vminpu=0.95 Vmaxpu=1.05 model=1 kW=1.66002 kvar=0.800219242954 Phases=2

New Load.rclvl5397 conn=wye bus1=rclv5397.1.2 kV=0.240178 Vminpu=0.95 Vmaxpu=1.05 model=1 kW=2.74003 kvar=1.33015976772 Phases=2

New Load.rclvl5394 conn=wye bus1=rclv5394.1.2 kV=0.240178 Vminpu=0.95 Vmaxpu=1.05 model=1 kW=1.66002 kvar=0.800219242954 Phases=2

New Load.rclvl5395 conn=wye bus1=rclv5395.1.2 kV=0.240178 Vminpu=0.95 Vmaxpu=1.05 model=1 kW=0.760008 kvar=0.370023806178 Phases=2

New Load.rclvl6281 conn=wye bus1=rclv6281.1.2 kV=0.240178 Vminpu=0.95 Vmaxpu=1.05 model=1 kW=1.66002 kvar=0.800219242954 Phases=2

New Load.rclvl6280 conn=wye bus1=rclv6280.1.2 kV=0.240178 Vminpu=0.95 Vmaxpu=1.05 model=1 kW=1.66002 kvar=0.800219242954 Phases=2

New Load.rclvl6283 conn=wye bus1=rclv6283.1.2 kV=0.240178 Vminpu=0.95 Vmaxpu=1.05 model=1 kW=1.66002 kvar=0.800219242954 Phases=2

New Load.rclvl6282 conn=wye bus1=rclv6282.1.2 kV=0.240178 Vminpu=0.95 Vmaxpu=1.05 model=1 kW=2.74003 kvar=1.33015976772 Phases=2

New Load.rclvl6285 conn=wye bus1=rclv6286.1.2 kV=0.240178 Vminpu=0.95 Vmaxpu=1.05 model=1 kW=0.760008 kvar=0.370023806178 Phases=2

New Load.rclvl6284 conn=wye bus1=rclv6284.1.2 kV=0.240178 Vminpu=0.95 Vmaxpu=1.05 model=1 kW=1.66002 kvar=0.800219242954 Phases=2

New Load.rclvl2449 conn=wye bus1=rclv2449.1.2 kV=0.240178 Vminpu=0.95 Vmaxpu=1.05 model=1 kW=1.66002 kvar=0.800219242954 Phases=2

New Load.rclvl2448 conn=wye bus1=rclv2448.1.2 kV=0.240178 Vminpu=0.95 Vmaxpu=1.05 model=1 kW=1.66002 kvar=0.800219242954 Phases=2

New Load.rclvl2447 conn=wye bus1=rclv2447.1.2 kV=0.240178 Vminpu=0.95 Vmaxpu=1.05 model=1 kW=1.66002 kvar=0.800219242954 Phases=2

New Load.rclvl2446 conn=wye bus1=rclv2446.1.2 kV=0.240178 Vminpu=0.95 Vmaxpu=1.05 model=1 kW=2.74003 kvar=1.33015976772 Phases=2

New Load.rclvl2445 conn=wye bus1=rclv2445.1.2 kV=0.240178 Vminpu=0.95 Vmaxpu=1.05 model=1 kW=1.66002 kvar=0.800219242954 Phases=2

New Load.rclvl2444 conn=wye bus1=rclv2444.1.2 kV=0.240178 Vminpu=0.95 Vmaxpu=1.05 model=1 kW=0.760008 kvar=0.370023806178 Phases=2

New Load.rclvl2443 conn=wye bus1=rclv2443.1.2 kV=0.240178 Vminpu=0.95 Vmaxpu=1.05 model=1 kW=1.66002 kvar=0.800219242954 Phases=2

New Load.rclvl2442 conn=wye bus1=rclv2442.1.2 kV=0.240178 Vminpu=0.95 Vmaxpu=1.05 model=1 kW=1.66002 kvar=0.800219242954 Phases=2

New Load.rclvl2441 conn=wye bus1=rclv2441.1.2 kV=0.240178 Vminpu=0.95 Vmaxpu=1.05 model=1 kW=38.2504 kvar=18.5255142389 Phases=2

New Load.rclvl2440 conn=wye bus1=rclv2440.1.2 kV=0.240178 Vminpu=0.95 Vmaxpu=1.05 model=1 kW=0.760008 kvar=0.370023806178 Phases=2

New Load.rclvl5538 conn=wye bus1=rclv5538.1.2 kV=0.240178 Vminpu=0.95 Vmaxpu=1.05 model=1 kW=1.66002 kvar=0.800219242954 Phases=2

New Load.rclvl5539 conn=wye bus1=rclv5539.1.2 kV=0.240178 Vminpu=0.95 Vmaxpu=1.05 model=1 kW=1.66002 kvar=0.800219242954 Phases=2

New Load.rclvl5536 conn=wye bus1=rclv5536.1.2 kV=0.240178 Vminpu=0.95 Vmaxpu=1.05 model=1 kW=1.66002 kvar=0.800219242954 Phases=2

New Load.rclvl5537 conn=wye bus1=rclv5537.1.2 kV=0.240178 Vminpu=0.95 Vmaxpu=1.05 model=1 kW=1.66002 kvar=0.800219242954 Phases=2

New Load.rclvl5534 conn=wye bus1=rclv5534.1.2 kV=0.240178 Vminpu=0.95 Vmaxpu=1.05 model=1 kW=1.66002 kvar=0.800219242954 Phases=2

New Load.rclvl5535 conn=wye bus1=rclv5535.1.2 kV=0.240178 Vminpu=0.95 Vmaxpu=1.05 model=1 kW=2.74003 kvar=1.33015976772 Phases=2

New Load.rclvl5532 conn=wye bus1=rclv5532.1.2 kV=0.240178 Vminpu=0.95 Vmaxpu=1.05 model=1 kW=2.74003 kvar=1.33015976772 Phases=2

New Load.rclvl5533 conn=wye bus1=rclv5533.1.2 kV=0.240178 Vminpu=0.95 Vmaxpu=1.05 model=1 kW=2.74003 kvar=1.33015976772 Phases=2

New Load.rclvl5530 conn=wye bus1=rclv5530.1.2 kV=0.240178 Vminpu=0.95 Vmaxpu=1.05 model=1 kW=0.760008 kvar=0.370023806178 Phases=2

New Load.rclvl5531 conn=wye bus1=rclv5531.1.2 kV=0.240178 Vminpu=0.95 Vmaxpu=1.05 model=1 kW=1.66002 kvar=0.800219242954 Phases=2

New Load.rclvl6139 conn=wye bus1=rclv6139.1.2 kV=0.240178 Vminpu=0.95 Vmaxpu=1.05 model=1 kW=38.2504 kvar=18.5255142389 Phases=2

New Load.rclvl6138 conn=wye bus1=rclv6138.1.2 kV=0.240178 Vminpu=0.95 Vmaxpu=1.05 model=1 kW=1.66002 kvar=0.800219242954 Phases=2

New Load.rclvl6133 conn=wye bus1=rclv6133.1.2 kV=0.240178 Vminpu=0.95 Vmaxpu=1.05 model=1 kW=1.66002 kvar=0.800219242954 Phases=2

New Load.rclvl6132 conn=wye bus1=rclv6132.1.2 kV=0.240178 Vminpu=0.95 Vmaxpu=1.05 model=1 kW=2.74003 kvar=1.33015976772 Phases=2

New Load.rclvl6131 conn=wye bus1=rclv6131.1.2 kV=0.240178 Vminpu=0.95 Vmaxpu=1.05 model=1 kW=1.66002 kvar=0.800219242954 Phases=2

New Load.rclvl6130 conn=wye bus1=rclv6130.1.2 kV=0.240178 Vminpu=0.95 Vmaxpu=1.05 model=1 kW=0.760008 kvar=0.370023806178 Phases=2

New Load.rclvl6137 conn=wye bus1=rclv6137.1.2 kV=0.240178 Vminpu=0.95 Vmaxpu=1.05 model=1 kW=1.66002 kvar=0.800219242954 Phases=2

...